Circuit: * C:\Users\dinhj\Desktop\Academia Repository\BEE Repository\BEE 331 Microelectronics and Circuits\Labs\BEE331_Lab_1\Spice\1_2-499ohm.asc

.OP point found by inspection.

Date: Mon Jul 15 06:33:04 2024
Total elapsed time: 0.052 seconds.

tnom = 27
temp = 27
method = trap
totiter = 77
traniter = 0
tranpoints = 0
accept = 0
rejected = 0
matrix size = 4
fillins = 0
solver = Normal
Avg thread counts: 16.0/0.0/16.0/16.0
Matrix Compiler1: 118 bytes object code size
Matrix Compiler2: 248 bytes object code size
