Circuit: * C:\Users\dinhj\Desktop\Academia Repository\BEE Repository\BEE 331 Microelectronics and Circuits\Labs\BEE331_Lab_1\Spice\1_4_3.asc

.OP point found by inspection.

Date: Mon Jul 15 06:28:49 2024
Total elapsed time: 0.166 seconds.

tnom = 27
temp = 27
method = modified trap
totiter = 2846
traniter = 2846
tranpoints = 1308
accept = 1214
rejected = 94
matrix size = 10
fillins = 2
solver = Normal
Avg thread counts: 3.1/5.5/5.5/3.1
Matrix Compiler1: 714 bytes object code size  0.4/0.4/[0.3]
Matrix Compiler2: off  [0.2]/0.3/0.3

