Circuit: * C:\Users\dinhj\Desktop\Academia Repository\BEE Repository\BEE 331 Microelectronics and Circuits\Labs\BEE331_Lab_1\Spice\1_4_2.asc

.OP point found by inspection.

Date: Mon Jul 15 06:27:51 2024
Total elapsed time: 0.178 seconds.

tnom = 27
temp = 27
method = modified trap
totiter = 2804
traniter = 2804
tranpoints = 1288
accept = 1205
rejected = 83
matrix size = 8
fillins = 1
solver = Normal
Avg thread counts: 3.1/5.6/5.6/3.1
Matrix Compiler1:      22 opcodes  0.3/[0.2]/0.3
Matrix Compiler2: off  [0.2]/0.3/0.2

